LAMMPS (23 Jun 2022)
# lammpstutorials.github.io

# PART A - ENERGY MINIMIZATION

# 1) Initialization
units lj
dimension 3 #-#
atom_style atomic
pair_style lj/cut 2.5
boundary p p p

# 2) System definition
region myreg block -30 30 -30 30 -30 30 #-#
create_box 2 myreg
Created orthogonal box = (-30 -30 -30) to (30 30 30)
create_atoms 1 random 4500 341341 myreg #-#
Created 4500 atoms
create_atoms 2 random 500 127569 myreg #-#
Created 500 atoms

# 3) Simulation settings
mass 1 1
mass 2 1
pair_coeff 1 1 1.0 1.0
pair_coeff 2 2 0.5 3.0

# 4) Visualization
thermo 10

# 5) Run
minimize 1.0e-4 1.0e-6 1000 10000
Generated 1 of 1 mixed pair_coeff terms from geometric mixing rule
  update every 1 steps, delay 0 steps, check yes
Step          Temp          E_pair         E_mol          TotEng         Press
0   0              2503061.6      0              2503061.6      231770.41
Loop time of 0.0577664 on 1 procs for 101 steps with 5000 atoms

Minimization stats:
  Stopping criterion = linesearch alpha is zero
  Energy initial, next-to-last, final =
  Force two-norm initial, final = 3.8934198e+11 33.071588
  Force max component initial, final = 1.9705781e+11 2.9242882
  Final line search alpha, max atom move = 2.7283193e-08 7.9783921e-08
  Iterations, force evaluations = 101 216

# PART B - MOLECULAR DYNAMICS

# 4) Vizualization
thermo 1000
dump mydmp all atom 500 dump.lammpstrj
variable kinetic_energy equal ke
variable potential_energy equal pe
variable pressure equal press
fix myat1 all ave/time 10 1 10 v_kinetic_energy v_potential_energy v_pressure file energy.dat

# 5) Run
fix mynve all nve
fix mylgv all langevin 1.0 1.0 0.1 1530917
#fix myefn all enforced2d #-#
timestep 0.005
run 20000
Generated 1 of 1 mixed pair_coeff terms from geometric mixing rule
Step          Temp          E_pair         E_mol          TotEng         Press
101   0             -0.55301037     0             -0.55301037    -0.00086930532
Averages over the last 11 of 22 rows, steps 11000 to 20101:
Temp E_pair E_mol TotEng Press
1.00232 -0.212207 0 1.29097 0.0221873
Loop time of 6.72973 on 1 procs for 20000 steps with 5000 atoms
