LAMMPS (23 Jun 2022)
# lammpstutorials.github.io

# 1) Initialization
units lj
dimension 2
atom_style atomic
pair_style lj/cut 2.5
boundary p p p

# 2) System definition
region mybox block -30 30 -30 30 -0.5 0.5
create_box 2 mybox
Created orthogonal box = (-30 -30 -0.5) to (30 30 0.5)
#-#
region mycylin cylinder z 0 0 15 INF INF side in
region mycylou cylinder z 0 0 15 INF INF side out
create_atoms 1 random 1000 341341 mycylou
Created 1000 atoms
create_atoms 2 random 150 127569 mycylin
Created 150 atoms

# 3) Simulation settings
mass 1 1
mass 2 1
pair_coeff 1 1 1.0 1.0
pair_coeff 2 2 0.5 3.0
neigh_modify every 1 delay 5 check yes

# 4) Visualization
thermo 10

# 5) Run
minimize 1.0e-4 1.0e-6 1000 10000
Generated 1 of 1 mixed pair_coeff terms from geometric mixing rule
  update every 1 steps, delay 0 steps, check yes
Step          Temp          E_pair         E_mol          TotEng         Press
0   0              1.6873599e+15  0              1.6873599e+15  3.2341064e+15
Loop time of 0.0164813 on 1 procs for 97 steps with 1150 atoms

Minimization stats:
  Stopping criterion = energy tolerance
  Energy initial, next-to-last, final =
  Force two-norm initial, final = 2.4919555e+20 939.22327
  Force max component initial, final = 1.4864594e+20 181.0258
  Final line search alpha, max atom move = 1.3502929e-08 2.4443785e-06
  Iterations, force evaluations = 97 162

# 2) System definition
#-#
group mytype1 type 1
1000 atoms in group mytype1
group mytype2 type 2
150 atoms in group mytype2
group incyl region mycylin
120 atoms in group incyl
group oucyl region mycylou
1030 atoms in group oucyl
group type1in intersect mytype1 incyl
1 atoms in group type1in
group type2ou intersect mytype2 oucyl
31 atoms in group type2ou
delete_atoms group type1in
Deleted 1 atoms, new total = 1149
delete_atoms group type2ou
Deleted 31 atoms, new total = 1118

# 4) Visualization
thermo 50000
dump mydmp all atom 5000 dump.RUN.lammpstrj
#-#
variable Ntype1in equal count(mytype1,mycylin)
variable Ntype1ou equal count(mytype1,mycylou)
variable Ntype2in equal count(mytype2,mycylin)
variable Ntype2ou equal count(mytype2,mycylou)
fix myat1 all ave/time 1000 10 10000 v_Ntype1in v_Ntype1ou file population1vstime.dat
fix myat2 all ave/time 1000 10 10000 v_Ntype2in v_Ntype2ou file population2vstime.dat

# 5) Run
velocity all create 1.0 4928459 mom yes rot yes dist gaussian #-#
fix mynve all nve
fix mylgv all langevin 1.0 1.0 0.1 1530917 zero yes
fix myefn all enforce2d
timestep 0.005
run 100000
Generated 1 of 1 mixed pair_coeff terms from geometric mixing rule
Step          Temp          E_pair         E_mol          TotEng         Press
97   1              0.051724055    0              1.0508296      2.9582501
Loop time of 8.98094 on 1 procs for 100000 steps with 1118 atoms
